/*--------------------------------*- C++ -*----------------------------------*\
  =========                 |
  \\      /  F ield         | OpenFOAM: The Open Source CFD Toolbox
   \\    /   O peration     | Website:  https://openfoam.org
    \\  /    A nd           | Version:  7
     \\/     M anipulation  |
\*---------------------------------------------------------------------------*/
FoamFile
{
    version     2.0;
    format      binary;
    class       polyBoundaryMesh;
    location    "0.4/polyMesh";
    object      boundary;
}
// * * * * * * * * * * * * * * * * * * * * * * * * * * * * * * * * * * * * * //

5
(
    leftWall
    {
        type            wall;
        inGroups        List<word> 1(wall);
        nFaces          64;
        startFace       30058;
    }
    rightWall
    {
        type            patch;
        nFaces          124;
        startFace       30122;
    }
    lowerWall
    {
        type            wall;
        inGroups        List<word> 1(wall);
        nFaces          87;
        startFace       30246;
    }
    atmosphere
    {
        type            patch;
        nFaces          52;
        startFace       30333;
    }
    defaultFaces
    {
        type            empty;
        inGroups        List<word> 1(empty);
        nFaces          29724;
        startFace       30385;
    }
)

// ************************************************************************* //
