/*--------------------------------*- C++ -*----------------------------------*\
  =========                 |
  \\      /  F ield         | OpenFOAM: The Open Source CFD Toolbox
   \\    /   O peration     | Website:  https://openfoam.org
    \\  /    A nd           | Version:  7
     \\/     M anipulation  |
\*---------------------------------------------------------------------------*/
FoamFile
{
    version     2.0;
    format      binary;
    class       polyBoundaryMesh;
    location    "0.3/polyMesh";
    object      boundary;
}
// * * * * * * * * * * * * * * * * * * * * * * * * * * * * * * * * * * * * * //

8
(
    leftWall
    {
        type            wall;
        inGroups        List<word> 1(wall);
        nFaces          26;
        startFace       6451;
    }
    rightWall
    {
        type            wall;
        inGroups        List<word> 1(wall);
        nFaces          0;
        startFace       6477;
    }
    lowerWall
    {
        type            wall;
        inGroups        List<word> 1(wall);
        nFaces          0;
        startFace       6477;
    }
    atmosphere
    {
        type            patch;
        nFaces          22;
        startFace       6477;
    }
    defaultFaces
    {
        type            empty;
        inGroups        List<word> 1(empty);
        nFaces          6370;
        startFace       6499;
    }
    procBoundary1to0
    {
        type            processor;
        inGroups        List<word> 1(processor);
        nFaces          52;
        startFace       12869;
        matchTolerance  0.0001;
        transform       unknown;
        myProcNo        1;
        neighbProcNo    0;
    }
    procBoundary1to2
    {
        type            processor;
        inGroups        List<word> 1(processor);
        nFaces          1;
        startFace       12921;
        matchTolerance  0.0001;
        transform       unknown;
        myProcNo        1;
        neighbProcNo    2;
    }
    procBoundary1to3
    {
        type            processor;
        inGroups        List<word> 1(processor);
        nFaces          86;
        startFace       12922;
        matchTolerance  0.0001;
        transform       unknown;
        myProcNo        1;
        neighbProcNo    3;
    }
)

// ************************************************************************* //
